*HEADING
FEA case 0086
*NODE
1, 24.5, -413.3430786132812, 23.56776809692383
2, 24.5, -413.2370910644531, 23.6819896697998
3, 24.5, -422.5, 33.0
4, 24.5, -413.4432373046875, 23.44840621948242
5, 24.5, -412.4945373535156, 24.24444198608398
6, 24.5, -412.6294860839844, 24.16653442382812
7, 24.5, -412.3558959960938, 24.31552696228027
8, 24.5, -413.8484497070312, 22.7852725982666
9, 24.5, -413.7808532714844, 22.9256591796875
10, 24.5, -413.9089660644531, 22.64169120788574
11, 24.5, -411.7711181640625, 24.52836608886719
12, 24.5, -411.9211120605469, 24.48616409301758
13, 24.5, -414.0466613769531, 22.19537734985352
14, 24.5, -414.0082092285156, 22.34637641906738
15, 24.5, -411.6192016601562, 24.56303977966309
16, 24.5, -414.0775146484375, 22.04265022277832
17, 24.5, -414.1162719726562, 21.7335319519043
18, 24.5, -414.1007385253906, 21.88857460021973
19, 24.5, -411.15576171875, 24.62111473083496
20, 24.5, -411.3111572265625, 24.60947036743164
** ... 2535 like lines cut
*ELEMENT, TYPE=S3, ELSET=EALL
1, 1, 2, 3
2, 4, 1, 3
3, 5, 3, 6
4, 7, 3, 5
5, 8, 9, 3
6, 10, 8, 3
7, 11, 3, 12
8, 13, 14, 3
9, 15, 3, 11
10, 16, 13, 3
11, 17, 18, 3
12, 19, 3, 20
13, 21, 3, 19
14, 22, 3, 21
15, 23, 3, 22
16, 24, 3, 23
17, 25, 3, 26
18, 27, 3, 28
19, 29, 30, 3
20, 29, 31, 32
** ... 1980 like lines cut
*MATERIAL, NAME=GI
*ELASTIC
200000, 0.27
*DENSITY
7850
*SHELL SECTION, ELSET=EALL, MATERIAL=GI
1.0
*BOUNDARY
149, 1, 6, 0.0
150, 1, 6, 0.0
151, 1, 6, 0.0
152, 1, 6, 0.0
153, 1, 6, 0.0
154, 1, 6, 0.0
155, 1, 6, 0.0
156, 1, 6, 0.0
157, 1, 6, 0.0
158, 1, 6, 0.0
159, 1, 6, 0.0
160, 1, 6, 0.0
161, 1, 6, 0.0
162, 1, 6, 0.0
163, 1, 6, 0.0
164, 1, 6, 0.0
165, 1, 6, 0.0
166, 1, 6, 0.0
167, 1, 6, 0.0
168, 1, 6, 0.0
** ... 926 like lines cut
*STEP
*STATIC
*CLOAD
840, 2, -1080.511391
842, 2, -1080.511391
838, 2, -1080.511391
*NODE FILE
U
*EL FILE
S, E
*END STEP
