*HEADING
FEA case 0046
*NODE
1, 24.5, -413.1255493164062, 23.79078674316406
2, 24.5, -422.5, 33.0
3, 24.5, -413.2370910644531, 23.6819896697998
4, 24.5, -413.3430786132812, 23.56776809692383
5, 24.5, -413.0086975097656, 23.89388847351074
6, 24.5, -413.4432373046875, 23.44840621948242
7, 24.5, -412.8869018554688, 23.99103927612305
8, 24.5, -413.5372924804688, 23.32419967651367
9, 24.5, -412.7603759765625, 24.08199691772461
10, 24.5, -413.6250915527344, 23.19545745849609
11, 24.5, -412.6294860839844, 24.16653442382812
12, 24.5, -413.7063293457031, 23.0625
13, 24.5, -412.4945373535156, 24.24444198608398
14, 24.5, -413.7808532714844, 22.9256591796875
15, 24.5, -412.3558959960938, 24.31552696228027
16, 24.5, -413.8484497070312, 22.7852725982666
17, 24.5, -412.2138671875, 24.37961387634277
18, 24.5, -413.9089660644531, 22.64169120788574
19, 24.5, -412.0688171386719, 24.43653869628906
20, 24.5, -413.9622802734375, 22.49527168273926
** ... 2892 like lines cut
*ELEMENT, TYPE=S3, ELSET=EALL
1, 1, 2, 3
2, 4, 3, 2
3, 5, 2, 1
4, 6, 4, 2
5, 7, 2, 5
6, 8, 6, 2
7, 9, 2, 7
8, 10, 8, 2
9, 11, 2, 9
10, 12, 10, 2
11, 13, 2, 11
12, 14, 12, 2
13, 15, 2, 13
14, 16, 14, 2
15, 17, 2, 15
16, 18, 16, 2
17, 19, 2, 17
18, 20, 18, 2
19, 21, 2, 19
20, 22, 20, 2
** ... 5840 like lines cut
*MATERIAL, NAME=GI
*ELASTIC
200000, 0.27
*DENSITY
7850
*SHELL SECTION, ELSET=EALL, MATERIAL=GI
1.0
*BOUNDARY
263, 1, 6, 0.0
264, 1, 6, 0.0
265, 1, 6, 0.0
266, 1, 6, 0.0
267, 1, 6, 0.0
268, 1, 6, 0.0
269, 1, 6, 0.0
270, 1, 6, 0.0
271, 1, 6, 0.0
272, 1, 6, 0.0
273, 1, 6, 0.0
274, 1, 6, 0.0
275, 1, 6, 0.0
276, 1, 6, 0.0
277, 1, 6, 0.0
278, 1, 6, 0.0
279, 1, 6, 0.0
280, 1, 6, 0.0
281, 1, 6, 0.0
282, 1, 6, 0.0
** ... 1044 like lines cut
*STEP
*STATIC
*CLOAD
1269, 2, -1194.285799
1267, 2, -1194.285799
1265, 2, -1194.285799
*NODE FILE
U
*EL FILE
S, E
*END STEP
